LTspice 24.0.12 for Windows
Circuit: * C:\Users\srich\OneDrive\Important Docs\02 IIITH Docs\02 IIITH Classwork\1-1\06 Electronics Workshop 1\Lab 3\Draft3.asc
Start Time: Mon Oct 14 18:21:10 2024
solver = Normal
Maximum thread count: 8
tnom = 27
temp = 27
method = modified trap
Direct Newton iteration for .op point succeeded.
Total elapsed time: 0.114 seconds.

