LTspice 24.0.12 for Windows
Circuit: * C:\Users\srich\OneDrive\Important Docs\02 IIITH Docs\02 IIITH Classwork\1-1\06 Electronics Workshop 1\Lab 3\RC Circuit.asc
Start Time: Sat Oct 12 23:38:38 2024
solver = Normal
Maximum thread count: 8
tnom = 27
temp = 27
method = modified trap
.OP point found by inspection.
Total elapsed time: 0.114 seconds.

