LTspice 24.0.12 for Windows
Circuit: * C:\Users\srich\OneDrive\Important Docs\02 IIITH Docs\02 IIITH Classwork\1-1\06 Electronics Workshop 1\Lab 3\Zener Diode Reg.asc
Start Time: Mon Oct  7 23:12:23 2024
solver = Normal
Maximum thread count: 8
tnom = 27
temp = 27
method = modified trap
Direct Newton iteration for .op point succeeded.
Semiconductor Device Operating Points:
                        --- Diodes ---
Name:      d1
Model:    1n750
Id:     -8.79e-03
Vd:     -4.66e+00
Req:     6.06e+00
CAP:     5.91e-11


Total elapsed time: 0.122 seconds.

