LTspice 24.0.12 for Windows
Circuit: * C:\Users\Sricharan\OneDrive\Important Docs\02 IIITH Docs\02 IIITH Classwork\1-2\01 Analog Electronic Circuits\Assignments\A1\LTSpice Files\1\1.2\B_AC.asc
Start Time: Sun Feb  2 23:09:12 2025
solver = Normal
Maximum thread count: 16
tnom = 27
temp = 27
method = modified trap
.OP point found by inspection.
Total elapsed time: 0.056 seconds.

