LTspice 24.0.12 for Windows
Circuit: * C:\Users\Sricharan\OneDrive\Desktop\E-Projects\02 Electronics\05 LTSpice Simulations\Assignment\1\1.2\Draft1.asc
Start Time: Sun Feb  2 09:57:12 2025
solver = Normal
Maximum thread count: 16
tnom = 27
temp = 27
method = modified trap
.OP point found by inspection.
Total elapsed time: 0.038 seconds.

