LTspice 24.1.1 for Windows
Circuit: C:\Users\Sricharan\OneDrive\Important Docs\02 IIITH Docs\02 IIITH Classwork\1-2\01 Analog Electronic Circuits\Assignments\A1\LTSpice Files\2\2.1\Diode_FwdBias.net
Start Time: Mon Feb  3 18:57:50 2025
solver = Normal
Maximum thread count: 16
tnom = 27
temp = 27
method = modified trap
.OP point found by inspection.
.step 
Total elapsed time: 0.186 seconds.

Files loaded:
C:\Users\Sricharan\OneDrive\Important Docs\02 IIITH Docs\02 IIITH Classwork\1-2\01 Analog Electronic Circuits\Assignments\A1\LTSpice Files\2\2.1\Diode_FwdBias.net
C:\Users\Sricharan\AppData\Local\LTspice\lib\cmp\standard.dio

