LTspice 24.0.12 for Windows
Circuit: * C:\Users\Sricharan\OneDrive\Desktop\E-Projects\02 Electronics\05 LTSpice Simulations\Assignment\2\2.1\Draft3.asc
Start Time: Sun Feb  2 10:54:59 2025
solver = Normal
Maximum thread count: 16
tnom = 27
temp = 27
method = modified trap
.OP point found by inspection.
Total elapsed time: 0.090 seconds.

