LTspice 24.1.1 for Windows
Circuit: C:\Users\Sricharan\OneDrive\Important Docs\02 IIITH Docs\02 IIITH Classwork\1-2\01 Analog Electronic Circuits\Assignments\A3\LTSpice Sims\3.2.net
Start Time: Tue Apr  1 14:44:46 2025
Ignoring BSIM parameter XL
Ignoring BSIM parameter XW
solver = Normal
Maximum thread count: 16
tnom = 27
temp = 27
method = modified trap
.step vb=-0.9
.step vb=0
.step vb=0.9
Total elapsed time: 0.277 seconds.

Files loaded:
C:\Users\Sricharan\OneDrive\Important Docs\02 IIITH Docs\02 IIITH Classwork\1-2\01 Analog Electronic Circuits\Assignments\A3\LTSpice Sims\3.2.net
C:\Users\Sricharan\AppData\Local\LTspice\lib\cmp\standard.mos
C:\Users\Sricharan\AppData\Local\LTspice\lib\sub\TSMC_180nm.txt

